<?xml version="1.0" encoding="UTF-8"?>

<!-- generated on Mon Jun 25 20:02:04 2018 by SUMO netconvert Version 0.25.0
<?xml version="1.0" encoding="UTF-8"?>

<configuration xmlns:xsi="http://www.w3.org/2001/XMLSchema-instance" xsi:noNamespaceSchemaLocation="http://sumo.dlr.de/xsd/netconvertConfiguration.xsd">

    <input>
        <node-files value="circle.nod.xml"/>
        <edge-files value="circle.edg.xml"/>
        <type-files value="circle.type.xml"/>
    </input>

    <output>
        <output-file value="circle.net.xml"/>
    </output>

</configuration>
-->

<net version="0.25" xmlns:xsi="http://www.w3.org/2001/XMLSchema-instance" xsi:noNamespaceSchemaLocation="http://sumo.dlr.de/xsd/net_file.xsd">

    <location netOffset="500.00,500.00" convBoundary="0.00,0.00,1000.00,1000.00" origBoundary="-500.00,-500.00,500.00,500.00" projParameter="!"/>

    <type id="fromE" priority="3" numLanes="1" speed="45.00"/>
    <type id="fromN" priority="3" numLanes="1" speed="45.00"/>
    <type id="fromS" priority="3" numLanes="1" speed="45.00"/>
    <type id="fromW" priority="3" numLanes="1" speed="45.00"/>
    <type id="toE" priority="3" numLanes="1" speed="45.00"/>
    <type id="toN" priority="3" numLanes="1" speed="45.00"/>
    <type id="toS" priority="3" numLanes="1" speed="45.00"/>
    <type id="toW" priority="3" numLanes="1" speed="45.00"/>

    <edge id=":E_0" function="internal">
        <lane id=":E_0_0" index="0" speed="45.00" length="4.82" shape="1000.00,498.35 1001.24,499.18 1001.65,500.00 1001.24,500.82 1000.00,501.65"/>
    </edge>
    <edge id=":N_0" function="internal">
        <lane id=":N_0_0" index="0" speed="45.00" length="4.82" shape="501.65,1000.00 500.82,1001.24 500.00,1001.65 499.18,1001.24 498.35,1000.00"/>
    </edge>
    <edge id=":S_0" function="internal">
        <lane id=":S_0_0" index="0" speed="45.00" length="4.82" shape="498.35,0.00 499.18,-1.24 500.00,-1.65 500.82,-1.24 501.65,0.00"/>
    </edge>
    <edge id=":W_0" function="internal">
        <lane id=":W_0_0" index="0" speed="45.00" length="4.82" shape="0.00,501.65 -1.24,500.82 -1.65,500.00 -1.24,499.18 0.00,498.35"/>
    </edge>
    <edge id=":center_0" function="internal">
        <lane id=":center_0_0" index="0" speed="45.00" length="5.00" shape="498.35,504.75 498.16,503.39 497.58,502.42 496.61,501.84 495.25,501.65"/>
    </edge>
    <edge id=":center_1" function="internal">
        <lane id=":center_1_0" index="0" speed="45.00" length="9.50" shape="498.35,504.75 498.35,495.25"/>
    </edge>
    <edge id=":center_2" function="internal">
        <lane id=":center_2_0" index="0" speed="45.00" length="5.28" shape="498.35,504.75 498.75,501.95 499.95,499.95 500.05,499.89"/>
    </edge>
    <edge id=":center_3" function="internal">
        <lane id=":center_3_0" index="0" speed="45.00" length="2.41" shape="498.35,504.75 499.18,503.51 500.00,503.10"/>
    </edge>
    <edge id=":center_16" function="internal">
        <lane id=":center_16_0" index="0" speed="45.00" length="5.04" shape="500.05,499.89 501.95,498.75 504.75,498.35"/>
    </edge>
    <edge id=":center_17" function="internal">
        <lane id=":center_17_0" index="0" speed="45.00" length="2.41" shape="500.00,503.10 500.82,503.51 501.65,504.75"/>
    </edge>
    <edge id=":center_4" function="internal">
        <lane id=":center_4_0" index="0" speed="45.00" length="5.00" shape="504.75,501.65 503.39,501.84 502.42,502.42 501.84,503.39 501.65,504.75"/>
    </edge>
    <edge id=":center_5" function="internal">
        <lane id=":center_5_0" index="0" speed="45.00" length="9.50" shape="504.75,501.65 495.25,501.65"/>
    </edge>
    <edge id=":center_6" function="internal">
        <lane id=":center_6_0" index="0" speed="45.00" length="5.28" shape="504.75,501.65 501.95,501.25 499.95,500.05 499.89,499.95"/>
    </edge>
    <edge id=":center_7" function="internal">
        <lane id=":center_7_0" index="0" speed="45.00" length="2.41" shape="504.75,501.65 503.51,500.82 503.10,500.00"/>
    </edge>
    <edge id=":center_18" function="internal">
        <lane id=":center_18_0" index="0" speed="45.00" length="5.04" shape="499.89,499.95 498.75,498.05 498.35,495.25"/>
    </edge>
    <edge id=":center_19" function="internal">
        <lane id=":center_19_0" index="0" speed="45.00" length="2.41" shape="503.10,500.00 503.51,499.18 504.75,498.35"/>
    </edge>
    <edge id=":center_8" function="internal">
        <lane id=":center_8_0" index="0" speed="45.00" length="5.00" shape="501.65,495.25 501.84,496.61 502.42,497.58 503.39,498.16 504.75,498.35"/>
    </edge>
    <edge id=":center_9" function="internal">
        <lane id=":center_9_0" index="0" speed="45.00" length="9.50" shape="501.65,495.25 501.65,504.75"/>
    </edge>
    <edge id=":center_10" function="internal">
        <lane id=":center_10_0" index="0" speed="45.00" length="5.28" shape="501.65,495.25 501.25,498.05 500.05,500.05 499.95,500.11"/>
    </edge>
    <edge id=":center_11" function="internal">
        <lane id=":center_11_0" index="0" speed="45.00" length="2.41" shape="501.65,495.25 500.82,496.49 500.00,496.90"/>
    </edge>
    <edge id=":center_20" function="internal">
        <lane id=":center_20_0" index="0" speed="45.00" length="5.04" shape="499.95,500.11 498.05,501.25 495.25,501.65"/>
    </edge>
    <edge id=":center_21" function="internal">
        <lane id=":center_21_0" index="0" speed="45.00" length="2.41" shape="500.00,496.90 499.18,496.49 498.35,495.25"/>
    </edge>
    <edge id=":center_12" function="internal">
        <lane id=":center_12_0" index="0" speed="45.00" length="5.00" shape="495.25,498.35 496.61,498.16 497.58,497.58 498.16,496.61 498.35,495.25"/>
    </edge>
    <edge id=":center_13" function="internal">
        <lane id=":center_13_0" index="0" speed="45.00" length="9.50" shape="495.25,498.35 504.75,498.35"/>
    </edge>
    <edge id=":center_14" function="internal">
        <lane id=":center_14_0" index="0" speed="45.00" length="5.28" shape="495.25,498.35 498.05,498.75 500.05,499.95 500.11,500.05"/>
    </edge>
    <edge id=":center_15" function="internal">
        <lane id=":center_15_0" index="0" speed="45.00" length="2.41" shape="495.25,498.35 496.49,499.18 496.90,500.00"/>
    </edge>
    <edge id=":center_22" function="internal">
        <lane id=":center_22_0" index="0" speed="45.00" length="5.04" shape="500.11,500.05 501.25,501.95 501.65,504.75"/>
    </edge>
    <edge id=":center_23" function="internal">
        <lane id=":center_23_0" index="0" speed="45.00" length="2.41" shape="496.90,500.00 496.49,500.82 495.25,501.65"/>
    </edge>

    <edge id="fromE" from="E" to="center" priority="3" type="fromE">
        <lane id="fromE_0" index="0" speed="45.00" length="495.25" shape="1000.00,501.65 504.75,501.65"/>
    </edge>
    <edge id="fromN" from="N" to="center" priority="3" type="fromN">
        <lane id="fromN_0" index="0" speed="45.00" length="495.25" shape="498.35,1000.00 498.35,504.75"/>
    </edge>
    <edge id="fromS" from="S" to="center" priority="3" type="fromS">
        <lane id="fromS_0" index="0" speed="45.00" length="495.25" shape="501.65,0.00 501.65,495.25"/>
    </edge>
    <edge id="fromW" from="W" to="center" priority="3" type="fromW">
        <lane id="fromW_0" index="0" speed="45.00" length="495.25" shape="0.00,498.35 495.25,498.35"/>
    </edge>
    <edge id="toE" from="center" to="E" priority="3" type="toE">
        <lane id="toE_0" index="0" speed="45.00" length="495.25" shape="504.75,498.35 1000.00,498.35"/>
    </edge>
    <edge id="toN" from="center" to="N" priority="3" type="toN">
        <lane id="toN_0" index="0" speed="45.00" length="495.25" shape="501.65,504.75 501.65,1000.00"/>
    </edge>
    <edge id="toS" from="center" to="S" priority="3" type="toS">
        <lane id="toS_0" index="0" speed="45.00" length="495.25" shape="498.35,495.25 498.35,0.00"/>
    </edge>
    <edge id="toW" from="center" to="W" priority="3" type="toW">
        <lane id="toW_0" index="0" speed="45.00" length="495.25" shape="495.25,501.65 0.00,501.65"/>
    </edge>

    <tlLogic id="center" type="static" programID="0" offset="0">
        <phase duration="9" state="GGggrrrrGGggrrrr"/>
        <phase duration="15" state="yyggrrrryyggrrrr"/>
        <phase duration="6" state="rrGGrrrrrrGGrrrr"/>
        <phase duration="15" state="rryyrrrrrryyrrrr"/>
        <phase duration="9" state="rrrrGGggrrrrGGgg"/>
        <phase duration="15" state="rrrryyggrrrryygg"/>
        <phase duration="6" state="rrrrrrGGrrrrrrGG"/>
        <phase duration="15" state="rrrrrryyrrrrrryy"/>
    </tlLogic>

    <junction id="E" type="priority" x="1000.00" y="500.00" incLanes="toE_0" intLanes=":E_0_0" shape="1000.00,500.05 1000.00,503.25 1000.00,496.75 1000.00,499.95">
        <request index="0" response="0" foes="0" cont="0"/>
    </junction>
    <junction id="N" type="priority" x="500.00" y="1000.00" incLanes="toN_0" intLanes=":N_0_0" shape="499.95,1000.00 496.75,1000.00 503.25,1000.00 500.05,1000.00">
        <request index="0" response="0" foes="0" cont="0"/>
    </junction>
    <junction id="S" type="priority" x="500.00" y="0.00" incLanes="toS_0" intLanes=":S_0_0" shape="500.05,0.00 503.25,0.00 496.75,0.00 499.95,0.00">
        <request index="0" response="0" foes="0" cont="0"/>
    </junction>
    <junction id="W" type="priority" x="0.00" y="500.00" incLanes="toW_0" intLanes=":W_0_0" shape="0.00,499.95 0.00,496.75 0.00,503.25 0.00,500.05">
        <request index="0" response="0" foes="0" cont="0"/>
    </junction>
    <junction id="center" type="traffic_light" x="500.00" y="500.00" incLanes="fromN_0 fromE_0 fromS_0 fromW_0" intLanes=":center_0_0 :center_1_0 :center_16_0 :center_17_0 :center_4_0 :center_5_0 :center_18_0 :center_19_0 :center_8_0 :center_9_0 :center_20_0 :center_21_0 :center_12_0 :center_13_0 :center_22_0 :center_23_0" shape="496.75,504.75 503.25,504.75 504.75,503.25 504.75,496.75 503.25,495.25 496.75,495.25 495.25,496.75 495.25,503.25">
        <request index="0" response="0000000000000000" foes="1000010000100000" cont="0"/>
        <request index="1" response="0000000000000000" foes="0111110001100000" cont="0"/>
        <request index="2" response="0000001100000000" foes="0110001111100000" cont="1"/>
        <request index="3" response="0100001000010000" foes="0100001000010000" cont="1"/>
        <request index="4" response="0000001000000000" foes="0100001000001000" cont="0"/>
        <request index="5" response="0000011000000111" foes="1100011000000111" cont="0"/>
        <request index="6" response="0011011000000110" foes="0011111000000110" cont="1"/>
        <request index="7" response="0010000100000100" foes="0010000100000100" cont="1"/>
        <request index="8" response="0000000000000000" foes="0010000010000100" cont="0"/>
        <request index="9" response="0000000000000000" foes="0110000001111100" cont="0"/>
        <request index="10" response="0000000000000011" foes="1110000001100011" cont="1"/>
        <request index="11" response="0001000001000010" foes="0001000001000010" cont="1"/>
        <request index="12" response="0000000000000010" foes="0000100001000010" cont="0"/>
        <request index="13" response="0000011100000110" foes="0000011111000110" cont="0"/>
        <request index="14" response="0000011000110110" foes="0000011000111110" cont="1"/>
        <request index="15" response="0000010000100001" foes="0000010000100001" cont="1"/>
    </junction>

    <junction id=":center_16_0" type="internal" x="500.05" y="499.89" incLanes=":center_2_0 fromS_0" intLanes=":center_5_0 :center_6_0 :center_7_0 :center_8_0 :center_9_0 :center_13_0 :center_14_0"/>
    <junction id=":center_17_0" type="internal" x="500.00" y="503.10" incLanes=":center_3_0 fromE_0 fromS_0 fromW_0" intLanes=":center_4_0 :center_9_0 :center_14_0"/>
    <junction id=":center_18_0" type="internal" x="499.89" y="499.95" incLanes=":center_6_0 fromW_0" intLanes=":center_1_0 :center_2_0 :center_9_0 :center_10_0 :center_11_0 :center_12_0 :center_13_0"/>
    <junction id=":center_19_0" type="internal" x="503.10" y="500.00" incLanes=":center_7_0 fromN_0 fromS_0 fromW_0" intLanes=":center_2_0 :center_8_0 :center_13_0"/>
    <junction id=":center_20_0" type="internal" x="499.95" y="500.11" incLanes=":center_10_0 fromN_0" intLanes=":center_0_0 :center_1_0 :center_5_0 :center_6_0 :center_13_0 :center_14_0 :center_15_0"/>
    <junction id=":center_21_0" type="internal" x="500.00" y="496.90" incLanes=":center_11_0 fromE_0 fromN_0 fromW_0" intLanes=":center_1_0 :center_6_0 :center_12_0"/>
    <junction id=":center_22_0" type="internal" x="500.11" y="500.05" incLanes=":center_14_0 fromE_0" intLanes=":center_1_0 :center_2_0 :center_3_0 :center_4_0 :center_5_0 :center_9_0 :center_10_0"/>
    <junction id=":center_23_0" type="internal" x="496.90" y="500.00" incLanes=":center_15_0 fromE_0 fromN_0 fromS_0" intLanes=":center_0_0 :center_5_0 :center_10_0"/>

    <connection from="fromE" to="toN" fromLane="0" toLane="0" via=":center_4_0" tl="center" linkIndex="4" dir="r" state="o"/>
    <connection from="fromE" to="toW" fromLane="0" toLane="0" via=":center_5_0" tl="center" linkIndex="5" dir="s" state="o"/>
    <connection from="fromE" to="toS" fromLane="0" toLane="0" via=":center_6_0" tl="center" linkIndex="6" dir="l" state="o"/>
    <connection from="fromE" to="toE" fromLane="0" toLane="0" via=":center_7_0" tl="center" linkIndex="7" dir="t" state="o"/>
    <connection from="fromN" to="toW" fromLane="0" toLane="0" via=":center_0_0" tl="center" linkIndex="0" dir="r" state="o"/>
    <connection from="fromN" to="toS" fromLane="0" toLane="0" via=":center_1_0" tl="center" linkIndex="1" dir="s" state="o"/>
    <connection from="fromN" to="toE" fromLane="0" toLane="0" via=":center_2_0" tl="center" linkIndex="2" dir="l" state="o"/>
    <connection from="fromN" to="toN" fromLane="0" toLane="0" via=":center_3_0" tl="center" linkIndex="3" dir="t" state="o"/>
    <connection from="fromS" to="toE" fromLane="0" toLane="0" via=":center_8_0" tl="center" linkIndex="8" dir="r" state="o"/>
    <connection from="fromS" to="toN" fromLane="0" toLane="0" via=":center_9_0" tl="center" linkIndex="9" dir="s" state="o"/>
    <connection from="fromS" to="toW" fromLane="0" toLane="0" via=":center_10_0" tl="center" linkIndex="10" dir="l" state="o"/>
    <connection from="fromS" to="toS" fromLane="0" toLane="0" via=":center_11_0" tl="center" linkIndex="11" dir="t" state="o"/>
    <connection from="fromW" to="toS" fromLane="0" toLane="0" via=":center_12_0" tl="center" linkIndex="12" dir="r" state="o"/>
    <connection from="fromW" to="toE" fromLane="0" toLane="0" via=":center_13_0" tl="center" linkIndex="13" dir="s" state="o"/>
    <connection from="fromW" to="toN" fromLane="0" toLane="0" via=":center_14_0" tl="center" linkIndex="14" dir="l" state="o"/>
    <connection from="fromW" to="toW" fromLane="0" toLane="0" via=":center_15_0" tl="center" linkIndex="15" dir="t" state="o"/>
    <connection from="toE" to="fromE" fromLane="0" toLane="0" via=":E_0_0" dir="t" state="M"/>
    <connection from="toN" to="fromN" fromLane="0" toLane="0" via=":N_0_0" dir="t" state="M"/>
    <connection from="toS" to="fromS" fromLane="0" toLane="0" via=":S_0_0" dir="t" state="M"/>
    <connection from="toW" to="fromW" fromLane="0" toLane="0" via=":W_0_0" dir="t" state="M"/>

    <connection from=":E_0" to="fromE" fromLane="0" toLane="0" dir="s" state="M"/>
    <connection from=":N_0" to="fromN" fromLane="0" toLane="0" dir="s" state="M"/>
    <connection from=":S_0" to="fromS" fromLane="0" toLane="0" dir="s" state="M"/>
    <connection from=":W_0" to="fromW" fromLane="0" toLane="0" dir="s" state="M"/>
    <connection from=":center_0" to="toW" fromLane="0" toLane="0" dir="s" state="M"/>
    <connection from=":center_1" to="toS" fromLane="0" toLane="0" dir="s" state="M"/>
    <connection from=":center_2" to="toE" fromLane="0" toLane="0" via=":center_16_0" dir="s" state="m"/>
    <connection from=":center_16" to="toE" fromLane="0" toLane="0" dir="s" state="M"/>
    <connection from=":center_3" to="toN" fromLane="0" toLane="0" via=":center_17_0" dir="s" state="m"/>
    <connection from=":center_17" to="toN" fromLane="0" toLane="0" dir="s" state="M"/>
    <connection from=":center_4" to="toN" fromLane="0" toLane="0" dir="s" state="M"/>
    <connection from=":center_5" to="toW" fromLane="0" toLane="0" dir="s" state="M"/>
    <connection from=":center_6" to="toS" fromLane="0" toLane="0" via=":center_18_0" dir="s" state="m"/>
    <connection from=":center_18" to="toS" fromLane="0" toLane="0" dir="s" state="M"/>
    <connection from=":center_7" to="toE" fromLane="0" toLane="0" via=":center_19_0" dir="s" state="m"/>
    <connection from=":center_19" to="toE" fromLane="0" toLane="0" dir="s" state="M"/>
    <connection from=":center_8" to="toE" fromLane="0" toLane="0" dir="s" state="M"/>
    <connection from=":center_9" to="toN" fromLane="0" toLane="0" dir="s" state="M"/>
    <connection from=":center_10" to="toW" fromLane="0" toLane="0" via=":center_20_0" dir="s" state="m"/>
    <connection from=":center_20" to="toW" fromLane="0" toLane="0" dir="s" state="M"/>
    <connection from=":center_11" to="toS" fromLane="0" toLane="0" via=":center_21_0" dir="s" state="m"/>
    <connection from=":center_21" to="toS" fromLane="0" toLane="0" dir="s" state="M"/>
    <connection from=":center_12" to="toS" fromLane="0" toLane="0" dir="s" state="M"/>
    <connection from=":center_13" to="toE" fromLane="0" toLane="0" dir="s" state="M"/>
    <connection from=":center_14" to="toN" fromLane="0" toLane="0" via=":center_22_0" dir="s" state="m"/>
    <connection from=":center_22" to="toN" fromLane="0" toLane="0" dir="s" state="M"/>
    <connection from=":center_15" to="toW" fromLane="0" toLane="0" via=":center_23_0" dir="s" state="m"/>
    <connection from=":center_23" to="toW" fromLane="0" toLane="0" dir="s" state="M"/>

</net>
