<edges>
<edge from="1" to="2" id="1to2" type="1to2"/>
<edge from="2" to="1" id="2to1" type="2to1"/>
<edge from="2" to="3" id="2to3" type="2to3"/>
<edge from="1" to="0" id="1to0" type="1to0"/>
</edges>
