<?xml version="1.0" encoding="UTF-8"?>

<!-- generated on Tue Jun 26 15:10:26 2018 by SUMO netconvert Version 0.25.0
<?xml version="1.0" encoding="UTF-8"?>

<configuration xmlns:xsi="http://www.w3.org/2001/XMLSchema-instance" xsi:noNamespaceSchemaLocation="http://sumo.dlr.de/xsd/netconvertConfiguration.xsd">

    <input>
        <node-files value="single.nod.xml"/>
        <edge-files value="single.edg.xml"/>
        <type-files value="single.type.xml"/>
    </input>

    <output>
        <output-file value="single.net.xml"/>
    </output>

</configuration>
-->

<net version="0.25" xmlns:xsi="http://www.w3.org/2001/XMLSchema-instance" xsi:noNamespaceSchemaLocation="http://sumo.dlr.de/xsd/net_file.xsd">

    <location netOffset="1.00,0.00" convBoundary="0.00,0.00,502.00,0.00" origBoundary="-1.00,0.00,501.00,0.00" projParameter="!"/>

    <type id="1to0" priority="3" numLanes="1" speed="45.00"/>
    <type id="1to2" priority="3" numLanes="1" speed="45.00"/>
    <type id="2to1" priority="3" numLanes="1" speed="45.00"/>
    <type id="2to3" priority="3" numLanes="1" speed="45.00"/>

    <edge id=":1_0" function="internal">
        <lane id=":1_0_0" index="0" speed="45.00" length="2.40" shape="2.50,1.65 0.10,1.65"/>
    </edge>
    <edge id=":1_1" function="internal">
        <lane id=":1_1_0" index="0" speed="45.00" length="4.82" shape="2.50,1.65 1.26,0.83 0.85,0.00 1.26,-0.83 2.50,-1.65"/>
    </edge>
    <edge id=":2_0" function="internal">
        <lane id=":2_0_0" index="0" speed="45.00" length="2.40" shape="499.50,-1.65 501.90,-1.65"/>
    </edge>
    <edge id=":2_1" function="internal">
        <lane id=":2_1_0" index="0" speed="45.00" length="4.82" shape="499.50,-1.65 500.74,-0.83 501.15,0.00 500.74,0.83 499.50,1.65"/>
    </edge>

    <edge id="1to0" from="1" to="0" priority="3" type="1to0">
        <lane id="1to0_0" index="0" speed="45.00" length="0.10" shape="0.10,1.65 0.00,1.65"/>
    </edge>
    <edge id="1to2" from="1" to="2" priority="3" type="1to2">
        <lane id="1to2_0" index="0" speed="45.00" length="497.00" shape="2.50,-1.65 499.50,-1.65"/>
    </edge>
    <edge id="2to1" from="2" to="1" priority="3" type="2to1">
        <lane id="2to1_0" index="0" speed="45.00" length="497.00" shape="499.50,1.65 2.50,1.65"/>
    </edge>
    <edge id="2to3" from="2" to="3" priority="3" type="2to3">
        <lane id="2to3_0" index="0" speed="45.00" length="0.10" shape="501.90,-1.65 502.00,-1.65"/>
    </edge>

    <junction id="0" type="unregulated" x="0.00" y="0.00" incLanes="1to0_0" intLanes="" shape="0.00,3.25 0.00,0.05"/>
    <junction id="1" type="priority" x="1.00" y="0.00" incLanes="2to1_0" intLanes=":1_0_0 :1_1_0" shape="2.50,3.25 2.50,-3.25 0.00,0.05 0.00,3.25">
        <request index="0" response="00" foes="00" cont="0"/>
        <request index="1" response="00" foes="00" cont="0"/>
    </junction>
    <junction id="2" type="priority" x="501.00" y="0.00" incLanes="1to2_0" intLanes=":2_0_0 :2_1_0" shape="502.00,-0.05 502.00,-3.25 499.50,-3.25 499.50,3.25">
        <request index="0" response="00" foes="00" cont="0"/>
        <request index="1" response="00" foes="00" cont="0"/>
    </junction>
    <junction id="3" type="unregulated" x="502.00" y="0.00" incLanes="2to3_0" intLanes="" shape="502.00,-3.25 502.00,-0.05"/>

    <connection from="1to2" to="2to3" fromLane="0" toLane="0" via=":2_0_0" dir="s" state="M"/>
    <connection from="1to2" to="2to1" fromLane="0" toLane="0" via=":2_1_0" dir="t" state="M"/>
    <connection from="2to1" to="1to0" fromLane="0" toLane="0" via=":1_0_0" dir="s" state="M"/>
    <connection from="2to1" to="1to2" fromLane="0" toLane="0" via=":1_1_0" dir="t" state="M"/>

    <connection from=":1_0" to="1to0" fromLane="0" toLane="0" dir="s" state="M"/>
    <connection from=":1_1" to="1to2" fromLane="0" toLane="0" dir="s" state="M"/>
    <connection from=":2_0" to="2to3" fromLane="0" toLane="0" dir="s" state="M"/>
    <connection from=":2_1" to="2to1" fromLane="0" toLane="0" dir="s" state="M"/>

</net>
