<nodes>
<node id="1" x="0" y="0"/>
<node id="2" x="500" y="0"/>
<node id="3" x="501" y="0"/>
<node id="0" x="-1" y="0"/>
<node id="5" x="100" y="30"/>
<node id="6" x="99" y="30"/>
</nodes>
