<?xml version="1.0" encoding="UTF-8"?>

<!-- generated on Tue Jun 26 15:20:42 2018 by SUMO netconvert Version 0.25.0
<?xml version="1.0" encoding="UTF-8"?>

<configuration xmlns:xsi="http://www.w3.org/2001/XMLSchema-instance" xsi:noNamespaceSchemaLocation="http://sumo.dlr.de/xsd/netconvertConfiguration.xsd">

    <input>
        <node-files value="highway.nod.xml"/>
        <edge-files value="highway.edg.xml"/>
        <type-files value="highway.type.xml"/>
    </input>

    <output>
        <output-file value="highway.net.xml"/>
    </output>

</configuration>
-->

<net version="0.25" xmlns:xsi="http://www.w3.org/2001/XMLSchema-instance" xsi:noNamespaceSchemaLocation="http://sumo.dlr.de/xsd/net_file.xsd">

    <location netOffset="1.00,0.00" convBoundary="0.00,0.00,502.00,30.00" origBoundary="-1.00,0.00,501.00,30.00" projParameter="!"/>

    <type id="1to0" priority="3" numLanes="1" speed="45.00"/>
    <type id="1to2" priority="3" numLanes="4" speed="45.00"/>
    <type id="2to1" priority="3" numLanes="4" speed="45.00"/>
    <type id="2to3" priority="3" numLanes="1" speed="45.00"/>
    <type id="2to5" priority="1" numLanes="1" speed="30.00"/>
    <type id="5to6" priority="1" numLanes="1" speed="30.00"/>

    <edge id=":1_0" function="internal">
        <lane id=":1_0_0" index="0" speed="45.00" length="11.65" shape="2.50,11.55 0.68,10.00 1.27,6.60 1.87,3.20 0.10,1.65"/>
    </edge>
    <edge id=":1_1" function="internal">
        <lane id=":1_1_0" index="0" speed="45.00" length="4.82" shape="2.50,1.65 1.26,0.83 0.85,0.00 1.26,-0.83 2.50,-1.65"/>
    </edge>
    <edge id=":2_0" function="internal">
        <lane id=":2_0_0" index="0" speed="45.00" length="11.67" shape="499.36,-11.55 501.21,-10.00 500.67,-6.60 500.11,-3.20 501.90,-1.65"/>
    </edge>
    <edge id=":2_1" function="internal">
        <lane id=":2_1_0" index="0" speed="37.50" length="89.35" shape="499.86,-4.95 533.34,-4.53 544.58,-3.29 533.59,-1.21 500.36,1.70"/>
    </edge>
    <edge id=":2_2" function="internal">
        <lane id=":2_2_0" index="0" speed="45.00" length="4.83" shape="500.11,-1.65 501.40,-0.92 501.88,-0.12 501.53,0.73 500.35,1.65"/>
    </edge>
    <edge id=":5_0" function="internal">
        <lane id=":5_0_0" index="0" speed="30.00" length="0.12" shape="101.12,31.65 101.00,31.65"/>
    </edge>

    <edge id="1to0" from="1" to="0" priority="3" type="1to0">
        <lane id="1to0_0" index="0" speed="45.00" length="0.10" shape="0.10,1.65 0.00,1.65"/>
    </edge>
    <edge id="1to2" from="1" to="2" priority="3" type="1to2">
        <lane id="1to2_0" index="0" speed="45.00" length="497.23" shape="2.50,-11.55 499.36,-11.55"/>
        <lane id="1to2_1" index="1" speed="45.00" length="497.23" shape="2.50,-8.25 499.61,-8.25"/>
        <lane id="1to2_2" index="2" speed="45.00" length="497.23" shape="2.50,-4.95 499.86,-4.95"/>
        <lane id="1to2_3" index="3" speed="45.00" length="497.23" shape="2.50,-1.65 500.11,-1.65"/>
    </edge>
    <edge id="2to1" from="2" to="1" priority="3" type="2to1">
        <lane id="2to1_0" index="0" speed="45.00" length="498.34" shape="501.00,11.55 2.50,11.55"/>
        <lane id="2to1_1" index="1" speed="45.00" length="498.34" shape="501.00,8.25 2.50,8.25"/>
        <lane id="2to1_2" index="2" speed="45.00" length="498.34" shape="501.00,4.95 2.50,4.95"/>
        <lane id="2to1_3" index="3" speed="45.00" length="498.34" shape="500.35,1.65 2.50,1.65"/>
    </edge>
    <edge id="2to3" from="2" to="3" priority="3" type="2to3">
        <lane id="2to3_0" index="0" speed="45.00" length="0.10" shape="501.90,-1.65 502.00,-1.65"/>
    </edge>
    <edge id="2to5" from="2" to="5" priority="1" type="2to5">
        <lane id="2to5_0" index="0" speed="30.00" length="400.36" shape="500.36,1.70 101.12,31.65"/>
    </edge>
    <edge id="5to6" from="5" to="6" priority="1" type="5to6">
        <lane id="5to6_0" index="0" speed="30.00" length="1.00" shape="101.00,31.65 100.00,31.65"/>
    </edge>

    <junction id="0" type="unregulated" x="0.00" y="0.00" incLanes="1to0_0" intLanes="" shape="0.00,3.25 0.00,0.05"/>
    <junction id="1" type="priority" x="1.00" y="0.00" incLanes="2to1_0 2to1_1 2to1_2 2to1_3" intLanes=":1_0_0 :1_1_0" shape="2.50,13.15 2.50,-13.15 0.00,0.05 0.00,3.25">
        <request index="0" response="00" foes="00" cont="0"/>
        <request index="1" response="00" foes="00" cont="0"/>
    </junction>
    <junction id="2" type="priority" x="501.00" y="0.00" incLanes="1to2_0 1to2_1 1to2_2 1to2_3" intLanes=":2_0_0 :2_1_0 :2_2_0" shape="502.00,-0.05 502.00,-3.25 499.24,-13.15 500.48,3.30">
        <request index="0" response="000" foes="000" cont="0"/>
        <request index="1" response="000" foes="000" cont="0"/>
        <request index="2" response="000" foes="000" cont="0"/>
    </junction>
    <junction id="3" type="unregulated" x="502.00" y="0.00" incLanes="2to3_0" intLanes="" shape="502.00,-3.25 502.00,-0.05"/>
    <junction id="5" type="priority" x="101.00" y="30.00" incLanes="2to5_0" intLanes=":5_0_0" shape="101.24,33.24 101.00,30.05 101.00,33.25">
        <request index="0" response="0" foes="0" cont="0"/>
    </junction>
    <junction id="6" type="unregulated" x="100.00" y="30.00" incLanes="5to6_0" intLanes="" shape="100.00,33.25 100.00,30.05"/>

    <connection from="1to2" to="2to3" fromLane="0" toLane="0" via=":2_0_0" dir="s" state="M"/>
    <connection from="1to2" to="2to5" fromLane="2" toLane="0" via=":2_1_0" dir="l" state="M"/>
    <connection from="1to2" to="2to1" fromLane="3" toLane="3" via=":2_2_0" dir="t" state="M"/>
    <connection from="2to1" to="1to0" fromLane="0" toLane="0" via=":1_0_0" dir="s" state="M"/>
    <connection from="2to1" to="1to2" fromLane="3" toLane="3" via=":1_1_0" dir="t" state="M"/>
    <connection from="2to5" to="5to6" fromLane="0" toLane="0" via=":5_0_0" dir="s" state="M"/>

    <connection from=":1_0" to="1to0" fromLane="0" toLane="0" dir="s" state="M"/>
    <connection from=":1_1" to="1to2" fromLane="0" toLane="3" dir="s" state="M"/>
    <connection from=":2_0" to="2to3" fromLane="0" toLane="0" dir="s" state="M"/>
    <connection from=":2_1" to="2to5" fromLane="0" toLane="0" dir="s" state="M"/>
    <connection from=":2_2" to="2to1" fromLane="0" toLane="3" dir="s" state="M"/>
    <connection from=":5_0" to="5to6" fromLane="0" toLane="0" dir="s" state="M"/>

</net>
